@<TRIPOS>MOLECULE
omega_1_18
   22    21     0     0     0
SMALL
USER_CHARGES
@<TRIPOS>ATOM
      1 C1         34.0408   12.2621   49.9865 C.2       1 <0>        0.9060 
      2 C2         33.2387   14.6621   51.8251 C.3       1 <0>        0.0000 
      3 C3         34.0671   13.4578   52.2902 C.3       1 <0>        0.0000 
      4 C4         33.6081   15.9102   52.6158 C.3       1 <0>        0.5030 
      5 C5         33.8064   12.1661   51.5041 C.3       1 <0>        0.3970 
      6 N1         35.0563   16.1808   52.4483 N.4       1 <0>       -0.8530 
      7 N2         34.5473   11.0441   52.1618 N.4       1 <0>       -0.8530 
      8 O1         35.2269   12.5324   49.6417 O.co2     1 <0>       -0.9000 
      9 O2         33.0337   12.0351   49.2585 O.co2     1 <0>       -0.9000 
     10 H1         32.1694   14.4538   51.9473 H         1 <0>        0.0000 
     11 H2         33.4102   14.8470   50.7583 H         1 <0>        0.0000 
     12 H3         33.8707   13.2781   53.3549 H         1 <0>        0.0000 
     13 H4         35.1330   13.7122   52.2195 H         1 <0>        0.0000 
     14 H5         33.4307   15.7837   53.6878 H         1 <0>        0.0000 
     15 H6         33.0767   16.7958   52.2557 H         1 <0>        0.0000 
     16 H7         32.7479   11.9046   51.6272 H         1 <0>        0.0000 
     17 H8         35.2920   17.0498   52.9058 H         1 <0>        0.4500 
     18 H9         35.2751   16.2485   51.4646 H         1 <0>        0.4500 
     19 H10        35.5897   15.4285   52.8603 H         1 <0>        0.4500 
     20 H11        34.0955   10.7895   53.0412 H         1 <0>        0.4500 
     21 H12        35.5098   11.3233   52.3576 H         1 <0>        0.4500 
     22 H13        34.5621   10.2249   51.5526 H         1 <0>        0.4500 
@<TRIPOS>BOND
    1     1     5 1
    2     1     8 1
    3     1     9 2
    4     2     3 1
    5     2     4 1
    6     3     5 1
    7     4     6 1
    8     5     7 1
    9     2    10 1
   10     2    11 1
   11     3    12 1
   12     3    13 1
   13     4    14 1
   14     4    15 1
   15     5    16 1
   16     6    17 1
   17     6    18 1
   18     6    19 1
   19     7    20 1
   20     7    21 1
   21     7    22 1
@<TRIPOS>SUBSTRUCTURE
