@<TRIPOS>MOLECULE
omega_1_17
   22    21     0     0     0
SMALL
USER_CHARGES
@<TRIPOS>ATOM
      1 C1         31.1368   14.6348   50.4558 C.2       1 <0>        0.9060 
      2 C2         30.7870   13.6723   54.2907 C.3       1 <0>        0.0000 
      3 C3         30.8944   14.5523   53.0389 C.3       1 <0>        0.0000 
      4 C4         29.6409   12.6784   54.1560 C.3       1 <0>        0.5030 
      5 C5         31.0874   13.7743   51.7304 C.3       1 <0>        0.3970 
      6 N1         28.3652   13.4225   54.0241 N.4       1 <0>       -0.8530 
      7 N2         32.2569   12.8532   51.8855 N.4       1 <0>       -0.8530 
      8 O1         31.8079   14.1453   49.5025 O.co2     1 <0>       -0.9000 
      9 O2         30.4830   15.7149   50.4953 O.co2     1 <0>       -0.9000 
     10 H1         30.6283   14.2966   55.1777 H         1 <0>        0.0000 
     11 H2         31.7234   13.1242   54.4467 H         1 <0>        0.0000 
     12 H3         31.7270   15.2558   53.1665 H         1 <0>        0.0000 
     13 H4         29.9890   15.1685   52.9600 H         1 <0>        0.0000 
     14 H5         29.5462   12.0397   55.0392 H         1 <0>        0.0000 
     15 H6         29.7397   12.0577   53.2607 H         1 <0>        0.0000 
     16 H7         30.2265   13.1053   51.6064 H         1 <0>        0.0000 
     17 H8         28.0137   13.3247   53.0822 H         1 <0>        0.4500 
     18 H9         28.5226   14.3998   54.2244 H         1 <0>        0.4500 
     19 H10        27.6890   13.0505   54.6756 H         1 <0>        0.4500 
     20 H11        32.0149   12.0745   52.4997 H         1 <0>        0.4500 
     21 H12        33.0497   13.3540   52.2896 H         1 <0>        0.4500 
     22 H13        32.5351   12.4789   50.9772 H         1 <0>        0.4500 
@<TRIPOS>BOND
    1     1     5 1
    2     1     8 1
    3     1     9 2
    4     2     3 1
    5     2     4 1
    6     3     5 1
    7     4     6 1
    8     5     7 1
    9     2    10 1
   10     2    11 1
   11     3    12 1
   12     3    13 1
   13     4    14 1
   14     4    15 1
   15     5    16 1
   16     6    17 1
   17     6    18 1
   18     6    19 1
   19     7    20 1
   20     7    21 1
   21     7    22 1
@<TRIPOS>SUBSTRUCTURE
